*Heading
** Job name: PP01_RadialSprings_Kr650 Model name: PP01_RadialSprings
** Generated by: Abaqus/CAE 2021
**Preprint, echo=NO, model=NO, history=NO, contact=NO
**
** PARTS
**
*Part, name=PART-1
*Node
      1, -0.098240003,           0., 0.0279190093
      2,           0., -0.098240003,   0.02771038
      3, -0.0933279991, -0.00491200015, 0.0280121509
      4, -0.0884160027, -0.0098240003,   0.02809464
      5, -0.0835039988, -0.0147360004, 0.0281666201
      6, -0.0785920024, -0.0196480006, 0.0282281991
      7, -0.0736799985, -0.0245600007, 0.0282794591
      8, -0.0687680021, -0.0294720009, 0.0283204503
      9, -0.0638559982, -0.034384001, 0.0283512007
     10, -0.0589440018, -0.0392960012, 0.0283716805
     11, -0.0540320016, -0.0442080013, 0.0283817891
     12, -0.0491200015, -0.0491200015, 0.0283813998
     13, -0.0442080013, -0.0540320016, 0.0283702891
     14, -0.0392960012, -0.0589440018, 0.0283481907
     15, -0.034384001, -0.0638559982, 0.0283147097
     16, -0.0294720009, -0.0687680021, 0.0282694008
     17, -0.0245600007, -0.0736799985, 0.0282117203
     18, -0.0196480006, -0.0785920024, 0.0281409808
     19, -0.0147360004, -0.0835039988, 0.0280564409
     20, -0.0098240003, -0.0884160027, 0.0279571898
** ... 1461 like lines cut
*Element, type=S4R
   1,    1,    3,   81,   80
   2,    3,    4,  100,   81
   3,    4,    5,  119,  100
   4,    5,    6,  138,  119
   5,    6,    7,  157,  138
   6,    7,    8,  176,  157
   7,    8,    9,  195,  176
   8,    9,   10,  214,  195
   9,   10,   11,  233,  214
  10,   11,   12,  252,  233
  11,   12,   13,  271,  252
  12,   13,   14,  290,  271
  13,   14,   15,  309,  290
  14,   15,   16,  328,  309
  15,   16,   17,  347,  328
  16,   17,   18,  366,  347
  17,   18,   19,  385,  366
  18,   19,   20,  404,  385
  19,   20,   21,  423,  404
  20,   21,    2,   23,  423
** ... 1420 like lines cut
*Elset, elset=ALL_ELES, generate
    1,  1440,     1
*Nset, nset=_PICKEDSET3, internal
 1086, 1088, 1089, 1090, 1091, 1092, 1093, 1094, 1095, 1096, 1097, 1098, 1099, 1100, 1101, 1102
 1103, 1104, 1105, 1106, 1107, 1208, 1210, 1211, 1212, 1213, 1214, 1215, 1216, 1217, 1218, 1219
 1220, 1221, 1222, 1223, 1224, 1225, 1226, 1227, 1228, 1328, 1330, 1331, 1332, 1333, 1334, 1335
 1336, 1337, 1338, 1339, 1340, 1341, 1342, 1343, 1344, 1345, 1346, 1347, 1348, 1444, 1445, 1446
 1447, 1448, 1449, 1450, 1451, 1452, 1453, 1454, 1455, 1456, 1457, 1458, 1459, 1460, 1461, 1462
** Section: Section-1-ALL_ELES
*Shell General Section, elset=ALL_ELES, material=STEEL
0.0015, 
*End Part
**  
**
** ASSEMBLY
**
*Assembly, name=Assembly
**  
*Instance, name=PART-1-1, part=PART-1
*End Instance
**  
*Nset, nset=ALL, instance=PART-1-1, generate
    1,  1481,     1
*Nset, nset=SET-2, instance=PART-1-1
 1086, 1088, 1089, 1090, 1091, 1092, 1093, 1094, 1095, 1096, 1097, 1098, 1099, 1100, 1101, 1102
 1103, 1104, 1105, 1106, 1107, 1208, 1210, 1211, 1212, 1213, 1214, 1215, 1216, 1217, 1218, 1219
 1220, 1221, 1222, 1223, 1224, 1225, 1226, 1227, 1228, 1328, 1330, 1331, 1332, 1333, 1334, 1335
 1336, 1337, 1338, 1339, 1340, 1341, 1342, 1343, 1344, 1345, 1346, 1347, 1348, 1444, 1445, 1446
 1447, 1448, 1449, 1450, 1451, 1452, 1453, 1454, 1455, 1456, 1457, 1458, 1459, 1460, 1461, 1462
*Orientation, name="PART-1-1-Datum csys-1", system=CYLINDRICAL
          0.,           0.,          0.1,           0.,           0.,          1.1
1, 0.
*Spring, elset=Springs/Dashpots-1-spring, orientation="PART-1-1-Datum csys-1"
1
650000.
*Element, type=Spring1, elset=Springs/Dashpots-1-spring
1, PART-1-1.1086
2, PART-1-1.1088
3, PART-1-1.1089
4, PART-1-1.1090
5, PART-1-1.1091
6, PART-1-1.1092
7, PART-1-1.1093
8, PART-1-1.1094
9, PART-1-1.1095
10, PART-1-1.1096
11, PART-1-1.1097
12, PART-1-1.1098
13, PART-1-1.1099
14, PART-1-1.1100
15, PART-1-1.1101
16, PART-1-1.1102
17, PART-1-1.1103
18, PART-1-1.1104
19, PART-1-1.1105
20, PART-1-1.1106
** ... 60 like lines cut
*End Assembly
** 
** MATERIALS
** 
**   ---- *MATERIAL ------------------------------------
*Material, name=STEEL
*Density
5120.,
*Elastic
 9.6e+10, 0.3
*Expansion, zero=70.
 6.3e-06,
** 
** BOUNDARY CONDITIONS
** 
** Name: Disp-BC-1 Type: Displacement/Rotation
*Boundary
SET-2, 3, 3
** Name: Disp-BC-2 Type: Displacement/Rotation
*Boundary
SET-2, 4, 4
** Name: Disp-BC-3 Type: Displacement/Rotation
*Boundary
SET-2, 5, 5
** Name: Disp-BC-4 Type: Displacement/Rotation
*Boundary
SET-2, 6, 6
** ----------------------------------------------------------------
** 