*Heading
** Job name: mems_arch Model name: Model-1
** Generated by: Abaqus/CAE 2024
*Preprint, echo=NO, model=NO, history=NO, contact=NO
**
** PARTS
**
*Part, name=Arch
*Node
      1,  0.265000015, 0.00248724665,           0.
      2,   0.26550436, 0.0074617425,           0.
      3,  0.255838931, 0.0033998841,           0.
      4,  0.246674746, 0.00428041117,           0.
      5,  0.237507507, 0.0051288167,           0.
      6,  0.228337362, 0.00594509114,           0.
      7,  0.219164416, 0.00672922377,           0.
      8,  0.209988773, 0.00748120528,           0.
      9,  0.200810552, 0.00820102636,           0.
     10,  0.191629857, 0.00888867769,           0.
     11,  0.182446823, 0.00954415184,           0.
     12,  0.173261538, 0.0101674395,           0.
     13,  0.164074123, 0.0107585341,           0.
     14,  0.154884696, 0.0113174282,           0.
     15,  0.145693377, 0.0118441144,           0.
     16,  0.136500254, 0.0123385871,           0.
     17,  0.127305463, 0.0128008388,           0.
     18,  0.118109107, 0.0132308658,           0.
     19,  0.108911298, 0.0136286607,           0.
     20, 0.0997121558, 0.0139942206,           0.
** ... 35235 like lines cut
*Element, type=C3D15
   1,   933,   240,   988,  1982,  1289,  2037,  8395,  8394,  8393,  8396,  8397,  8398,  8400,  8399,  8401
   2,   918,   288,   988,  1967,  1337,  2037,  8404,  8403,  8402,  8405,  8406,  8407,  8409,  8408,  8401
   3,   239,   244,   752,  1288,  1293,  1801,  8412,  8411,  8410,  8413,  8414,  8415,  8417,  8416,  8418
   4,     4,   244,   290,  1053,  1293,  1339,  8421,  8420,  8419,  8422,  8423,  8424,  8425,  8416,  8426
   5,   743,   243,   763,  1792,  1292,  1812,  8429,  8428,  8427,  8430,  8431,  8432,  8434,  8433,  8435
   6,     5,   243,   765,  1054,  1292,  1814,  8438,  8437,  8436,  8439,  8440,  8441,  8442,  8433,  8443
   7,   242,   741,   770,  1291,  1790,  1819,  8446,  8445,  8444,  8447,  8448,  8449,  8451,  8450,  8452
   8,   243,   238,   765,  1292,  1287,  1814,  8454,  8453,  8437,  8455,  8456,  8440,  8433,  8457,  8443
   9,   238,   243,   743,  1287,  1292,  1792,  8454,  8429,  8458,  8455,  8430,  8459,  8457,  8433,  8434
  10,   244,   744,   763,  1293,  1793,  1812,  8462,  8461,  8460,  8463,  8464,  8465,  8416,  8466,  8435
  11,   745,   752,   918,  1794,  1801,  1967,  8469,  8468,  8467,  8470,  8471,  8472,  8473,  8418,  8409
  12,   746,   745,   918,  1795,  1794,  1967,  8475,  8467,  8474,  8476,  8472,  8477,  8478,  8473,  8409
  13,   285,   748,  1046,  1334,  1797,  2095,  8481,  8480,  8479,  8482,  8483,  8484,  8486,  8485,  8487
  14,   748,   747,   943,  1797,  1796,  1992,  8490,  8489,  8488,  8491,  8492,  8493,  8485,  8494,  8495
  15,   242,   292,   765,  1291,  1341,  1814,  8498,  8497,  8496,  8499,  8500,  8501,  8451,  8502,  8443
  16,   237,   241,   770,  1286,  1290,  1819,  8505,  8504,  8503,  8506,  8507,  8508,  8510,  8509,  8452
  17,   740,   739,   762,  1789,  1788,  1811,  8513,  8512,  8511,  8514,  8515,  8516,  8518,  8517,  8519
  18,   293,   242,   770,  1342,  1291,  1819,  8521,  8444,  8520,  8522,  8449,  8523,  8524,  8451,  8452
  19,   241,   294,     6,  1290,  1343,  1055,  8527,  8526,  8525,  8528,  8529,  8530,  8509,  8531,  8532
  20,   295,   294,   762,  1344,  1343,  1811,  8535,  8534,  8533,  8536,  8537,  8538,  8539,  8531,  8519
** ... 9724 like lines cut
*Nset, nset=Set-1, generate
     1,  35255,      1
*Elset, elset=Set-1, generate
    1,  9744,     1
** Section: arch section
*Solid Section, elset=Set-1, material=Silicon
,
*End Part
**  
**
** ASSEMBLY
**
*Assembly, name=Assembly
**  
*Instance, name=Arch-1, part=Arch
*End Instance
**  
*Nset, nset=Set-1, instance=Arch-1
     1,     2,    60,    61,   121,   122,   180,   181,   285,   401,   517,   633,  1050,  1051,  1109,  1110
  1170,  1171,  1229,  1230,  1334,  1450,  1566,  1682,  2099,  2100,  2158,  2159,  2219,  2220,  2278,  2279
  2383,  2499,  2615,  2731,  3148,  3149,  3207,  3208,  3268,  3269,  3327,  3328,  3432,  3548,  3664,  3780
  4197,  4198,  4256,  4257,  4317,  4318,  4376,  4377,  4481,  4597,  4713,  4829,  5246,  5247,  5305,  5306
  5366,  5367,  5425,  5426,  5530,  5646,  5762,  5878,  6295,  6296,  6354,  6355,  6415,  6416,  6474,  6475
  6579,  6695,  6811,  6927,  7344,  7345,  7403,  7404,  7464,  7465,  7523,  7524,  7628,  7744,  7860,  7976
  8486, 10408, 11370, 11827, 11828, 11831, 11832, 11839, 12267, 12268, 12270, 12277, 12752, 12753, 12756, 12757
 12764, 13127, 13128, 13130, 14310, 14311, 14312, 14313, 14314, 14315, 14318, 14319, 14380, 15612, 16197, 16457
 16460, 16461, 16465, 16712, 16714, 16718, 16985, 16988, 16989, 16993, 17195, 17197, 17805, 17806, 17807, 17809
 17869, 19101, 19686, 19946, 19949, 19950, 19954, 20201, 20203, 20207, 20474, 20477, 20478, 20482, 20684, 20686
 21294, 21295, 21296, 21298, 21358, 22590, 23175, 23435, 23438, 23439, 23443, 23690, 23692, 23696, 23963, 23966
 23967, 23971, 24173, 24175, 24783, 24784, 24785, 24787, 24847, 26079, 26664, 26924, 26927, 26928, 26932, 27179
 27181, 27185, 27452, 27455, 27456, 27460, 27662, 27664, 28272, 28273, 28274, 28276, 28336, 29568, 30153, 30413
 30416, 30417, 30421, 30668, 30670, 30674, 30941, 30944, 30945, 30949, 31151, 31153, 31761, 31762, 31763, 31765
 31825, 33057, 33642, 33902, 33905, 33906, 33910, 34157, 34159, 34163, 34430, 34433, 34434, 34438, 34640, 34642
 35250, 35251, 35252, 35254
*Elset, elset=Set-1, instance=Arch-1
  508,  599,  701,  790, 1377, 1379, 1381, 1385, 1900, 1991, 2093, 2182, 2769, 2771, 2773, 2777
 3292, 3383, 3485, 3574, 4161, 4163, 4165, 4169, 4684, 4775, 4877, 4966, 5553, 5555, 5557, 5561
 6076, 6167, 6269, 6358, 6945, 6947, 6949, 6953, 7468, 7559, 7661, 7750, 8337, 8339, 8341, 8345
 8860, 8951, 9053, 9142, 9729, 9731, 9733, 9737
*End Assembly
** 
** MATERIALS
** 
*Material, name=Silicon
*Density
 0.00233,
*Elastic
 1.67e+11, 0.22
** 
** BOUNDARY CONDITIONS
** 
** Name: BC-1 Type: Displacement/Rotation
*Boundary
Set-1, 1, 1
Set-1, 2, 2
Set-1, 3, 3
Set-1, 4, 4
Set-1, 5, 5
Set-1, 6, 6
