*Heading
** Job name: ic_test Model name: Model-1
** Generated by: Abaqus/CAE 2024
*Preprint, echo=NO, model=NO, history=NO, contact=NO
**
** PARTS
**
*Part, name=Part-1
*Node
      1, -0.219999999,           0.,           0.
      2, -0.217500001,           0.,           0.
      3, -0.215000004,           0.,           0.
      4, -0.212500006,           0.,           0.
      5, -0.209999993,           0.,           0.
      6, -0.207499996,           0.,           0.
      7, -0.204999998,           0.,           0.
      8, -0.202500001,           0.,           0.
      9, -0.200000003,           0.,           0.
     10, -0.197500005,           0.,           0.
     11, -0.194999993,           0.,           0.
     12, -0.192499995,           0.,           0.
     13, -0.189999998,           0.,           0.
     14,      -0.1875,           0.,           0.
     15, -0.185000002,           0.,           0.
     16, -0.182500005,           0.,           0.
     17, -0.180000007,           0.,           0.
     18, -0.177499995,           0.,           0.
     19, -0.174999997,           0.,           0.
     20, -0.172499999,           0.,           0.
** ... 221 like lines cut
*Element, type=B32
  1,   1, 122,   2
  2,   2, 123,   3
  3,   3, 124,   4
  4,   4, 125,   5
  5,   5, 126,   6
  6,   6, 127,   7
  7,   7, 128,   8
  8,   8, 129,   9
  9,   9, 130,  10
 10,  10, 131,  11
 11,  11, 132,  12
 12,  12, 133,  13
 13,  13, 134,  14
 14,  14, 135,  15
 15,  15, 136,  16
 16,  16, 137,  17
 17,  17, 138,  18
 18,  18, 139,  19
 19,  19, 140,  20
 20,  20, 141,  21
** ... 100 like lines cut
*Nset, nset=Set-1, generate
   1,  241,    1
*Elset, elset=Set-1, generate
   1,  120,    1
*Nset, nset=Set-2, generate
   1,  241,    1
*Elset, elset=Set-2, generate
   1,  120,    1
** Section: Section-1  Profile: Profile-1
*Beam Section, elset=Set-1, material=steel, temperature=GRADIENTS, section=RECT
0.025, 0.001
0.,0.,-1.
*End Part
**  
**
** ASSEMBLY
**
*Assembly, name=Assembly
**  
*Instance, name=Part-1-1, part=Part-1
*End Instance
**  
*Nset, nset=Set-3, instance=Part-1-1
   1, 121
*Spring, elset=Springs/Dashpots-1-spring
1
X_STIFFNESS_HERE
*Element, type=Spring1, elset=Springs/Dashpots-1-spring
1, Part-1-1.1
2, Part-1-1.121
*Spring, elset=Springs/Dashpots-2-spring
2
Y_STIFFNESS_HERE
*Element, type=Spring1, elset=Springs/Dashpots-2-spring
3, Part-1-1.1
4, Part-1-1.121
*End Assembly
** 
** MATERIALS
** 
*Material, name=steel
*Density
7800.,
*Elastic
 2.05e+11, 0.3
** 
** BOUNDARY CONDITIONS
** 
** Name: BC-1 Type: Displacement/Rotation
*Boundary
Set-3, 3, 3
Set-3, 4, 4
