*Heading
** Job name: remesh Model name: Model-1
** Generated by: Abaqus/CAE 2024
*Preprint, echo=NO, model=NO, history=NO, contact=NO
**
** PARTS
**
*Part, name=Part-1
*Node
      1, -0.219999999,           0.,           0.
      2, -0.219964996,           0.,           0.
      3, -0.219929993,           0.,           0.
      4,  -0.21989499,           0.,           0.
      5, -0.219859987,           0.,           0.
      6, -0.219824985,           0.,           0.
      7, -0.219789997,           0.,           0.
      8, -0.219754994,           0.,           0.
      9, -0.219719991,           0.,           0.
     10, -0.219684988,           0.,           0.
     11, -0.219649985,           0.,           0.
     12, -0.219614983,           0.,           0.
     13,  -0.21957998,           0.,           0.
     14, -0.219544977,           0.,           0.
     15, -0.219509974,           0.,           0.
     16, -0.219474971,           0.,           0.
     17, -0.219439968,           0.,           0.
     18, -0.219404966,           0.,           0.
     19, -0.219369963,           0.,           0.
     20,  -0.21933496,           0.,           0.
** ... 17123 like lines cut
*Element, type=B32
   1,     1,  8573,     2
   2,     2,  8574,     3
   3,     3,  8575,     4
   4,     4,  8576,     5
   5,     5,  8577,     6
   6,     6,  8578,     7
   7,     7,  8579,     8
   8,     8,  8580,     9
   9,     9,  8581,    10
  10,    10,  8582,    11
  11,    11,  8583,    12
  12,    12,  8584,    13
  13,    13,  8585,    14
  14,    14,  8586,    15
  15,    15,  8587,    16
  16,    16,  8588,    17
  17,    17,  8589,    18
  18,    18,  8590,    19
  19,    19,  8591,    20
  20,    20,  8592,    21
** ... 8551 like lines cut
*Nset, nset=Set-1, generate
     1,  17143,      1
*Elset, elset=Set-1, generate
    1,  8571,     1
** Section: Section-1  Profile: Profile-1
*Beam Section, elset=Set-1, material=steel, temperature=GRADIENTS, section=RECT
0.025, 0.001
0.,0.,-1.
*End Part
**  
**
** ASSEMBLY
**
*Assembly, name=Assembly
**  
*Instance, name=Part-1-1, part=Part-1
*End Instance
**  
*Nset, nset=Set-1, instance=Part-1-1
    1, 8572
*End Assembly
** 
** MATERIALS
** 
*Material, name=steel
*Density
7800.,
*Elastic
 2.05e+11, 0.3
** 
** BOUNDARY CONDITIONS
** 
** Name: BC-1 Type: Displacement/Rotation
*Boundary
Set-1, 1, 1
Set-1, 2, 2
Set-1, 3, 3
Set-1, 4, 4
Set-1, 5, 5
Set-1, 6, 6
