*Heading
** Job name: Job-1 Model name: Model-1
** Generated by: Abaqus/CAE 2024
*Preprint, echo=NO, model=NO, history=NO, contact=NO
**
** PARTS
**
*Part, name=Part-1
*Node
      1, 0.0200017318, 0.00451689446, 0.0320000015
      2, 0.0400031991, 0.00462617446, 0.0320000015
      3, 0.0600041784, 0.00480362214, 0.0320000015
      4, 0.0800045207, 0.00504241511, 0.0320000015
      5,  0.100004181, 0.00533337053, 0.0320000015
      6,  0.120003201, 0.00566530367, 0.0320000015
      7,  0.140001729, 0.00602545869, 0.0320000015
      8,  0.159999996, 0.00639999984, 0.0320000015
      9,  0.179998264, 0.00677454146, 0.0320000015
     10,  0.199996799, 0.00713469647, 0.0320000015
     11,  0.219995826, 0.00746662915, 0.0320000015
     12,   0.23999548, 0.00775758456, 0.0320000015
     13,  0.259995818, 0.00799637754, 0.0320000015
     14,  0.279996812, 0.00817382522, 0.0320000015
     15,  0.299998283, 0.00828310102, 0.0320000015
     16,  0.319999993, 0.00832000002, 0.0320000015
     17,  0.340001732, 0.00828310102, 0.0320000015
     18,  0.360003203, 0.00817382522, 0.0320000015
     19,  0.380004168, 0.00799637754, 0.0320000015
     20,  0.400004536, 0.00775758456, 0.0320000015
** ... 884 like lines cut
*Element, type=C3D15
  1,  33,  66,  98, 163, 196, 228, 263, 262, 261, 264, 265, 266, 268, 267, 269
  2,  98,  99,  35, 228, 229, 165, 272, 271, 270, 273, 274, 275, 269, 276, 277
  3,  97, 100,  36, 227, 230, 166, 280, 279, 278, 281, 282, 283, 285, 284, 286
  4,  96, 101,  37, 226, 231, 167, 289, 288, 287, 290, 291, 292, 294, 293, 295
  5,  95, 102,  38, 225, 232, 168, 298, 297, 296, 299, 300, 301, 303, 302, 304
  6,  94, 103,  39, 224, 233, 169, 307, 306, 305, 308, 309, 310, 312, 311, 313
  7,  93, 104,  40, 223, 234, 170, 316, 315, 314, 317, 318, 319, 321, 320, 322
  8,  92, 105,  41, 222, 235, 171, 325, 324, 323, 326, 327, 328, 330, 329, 331
  9,  91, 106,  42, 221, 236, 172, 334, 333, 332, 335, 336, 337, 339, 338, 340
 10,  90, 107,  43, 220, 237, 173, 343, 342, 341, 344, 345, 346, 348, 347, 349
 11,  89, 108,  44, 219, 238, 174, 352, 351, 350, 353, 354, 355, 357, 356, 358
 12,  88, 109,  45, 218, 239, 175, 361, 360, 359, 362, 363, 364, 366, 365, 367
 13,  87, 110,  46, 217, 240, 176, 370, 369, 368, 371, 372, 373, 375, 374, 376
 14,  86, 111,  47, 216, 241, 177, 379, 378, 377, 380, 381, 382, 384, 383, 385
 15,  85, 112,  48, 215, 242, 178, 388, 387, 386, 389, 390, 391, 393, 392, 394
 16,  84, 113,  49, 214, 243, 179, 397, 396, 395, 398, 399, 400, 402, 401, 403
 17,  83, 114,  50, 213, 244, 180, 406, 405, 404, 407, 408, 409, 411, 410, 412
 18,  16,  50,  82, 146, 180, 212, 415, 414, 413, 416, 417, 418, 419, 412, 420
 19, 115,  51,  82, 245, 181, 212, 423, 422, 421, 424, 425, 426, 428, 427, 420
 20,  51,  81,  15, 181, 211, 145, 431, 430, 429, 432, 433, 434, 427, 435, 436
** ... 108 like lines cut
*Nset, nset=Set-1, generate
   1,  904,    1
*Elset, elset=Set-1, generate
   1,  128,    1
** Section: Section-1
*Solid Section, elset=Set-1, material=Material-1
,
*End Part
**  
**
** ASSEMBLY
**
*Assembly, name=Assembly
**  
*Instance, name=Part-1-1, part=Part-1
*End Instance
**  
*Nset, nset=Set-1, instance=Part-1-1
  32,  33,  34,  66, 162, 163, 164, 196, 263, 264, 267, 268, 576, 774, 777, 778
*Elset, elset=Set-1, instance=Part-1-1
  1, 65
*End Assembly
** 
** MATERIALS
** 
*Material, name=Material-1
*Density
 0.00232,
*Elastic
 1.6e+11, 0.22
** 
** BOUNDARY CONDITIONS
** 
** Name: BC-1 Type: Displacement/Rotation
*Boundary
Set-1, 1, 1
Set-1, 2, 2
Set-1, 3, 3
Set-1, 4, 4
Set-1, 5, 5
Set-1, 6, 6
** ----------------------------------------------------------------
