*Heading
** Job name: Job-1 Model name: Model-1
** Generated by: Abaqus/CAE 2024
*Preprint, echo=NO, model=NO, history=NO, contact=NO
**
** PARTS
**
*Part, name=Part-1
*Node
      1,   20.0017319,   4.51689863,          32.
      2,   40.0031967,   4.62617445,          32.
      3,   60.0041771,   4.80362225,          32.
      4,   80.0045242,   5.04241514,          32.
      5,   100.004181,   5.33337069,          32.
      6,   120.003197,   5.66530371,          32.
      7,   140.001724,   6.02545881,          32.
      8,         160.,    6.4000001,          32.
      9,   179.998276,   6.77454138,          32.
     10,   199.996796,   7.13469648,          32.
     11,   219.995819,   7.46662951,          32.
     12,   239.995483,   7.75758457,          32.
     13,   259.995819,   7.99637794,          32.
     14,   279.996796,   8.17382526,          32.
     15,    299.99826,   8.28310108,          32.
     16,         320.,   8.31999969,          32.
     17,    340.00174,   8.28310108,          32.
     18,   360.003204,   8.17382526,          32.
     19,   380.004181,   7.99637794,          32.
     20,   400.004517,   7.75758457,          32.
** ... 884 like lines cut
*Element, type=C3D15
  1, 228, 196, 163,  98,  66,  33, 263, 262, 261, 264, 265, 266, 268, 267, 269
  2, 165, 229, 228,  35,  99,  98, 272, 271, 270, 273, 274, 275, 277, 276, 268
  3, 166, 230, 227,  36, 100,  97, 280, 279, 278, 281, 282, 283, 285, 284, 286
  4, 167, 231, 226,  37, 101,  96, 289, 288, 287, 290, 291, 292, 294, 293, 295
  5, 168, 232, 225,  38, 102,  95, 298, 297, 296, 299, 300, 301, 303, 302, 304
  6, 169, 233, 224,  39, 103,  94, 307, 306, 305, 308, 309, 310, 312, 311, 313
  7, 170, 234, 223,  40, 104,  93, 316, 315, 314, 317, 318, 319, 321, 320, 322
  8, 171, 235, 222,  41, 105,  92, 325, 324, 323, 326, 327, 328, 330, 329, 331
  9, 172, 236, 221,  42, 106,  91, 334, 333, 332, 335, 336, 337, 339, 338, 340
 10, 173, 237, 220,  43, 107,  90, 343, 342, 341, 344, 345, 346, 348, 347, 349
 11, 174, 238, 219,  44, 108,  89, 352, 351, 350, 353, 354, 355, 357, 356, 358
 12, 175, 239, 218,  45, 109,  88, 361, 360, 359, 362, 363, 364, 366, 365, 367
 13, 176, 240, 217,  46, 110,  87, 370, 369, 368, 371, 372, 373, 375, 374, 376
 14, 177, 241, 216,  47, 111,  86, 379, 378, 377, 380, 381, 382, 384, 383, 385
 15, 178, 242, 215,  48, 112,  85, 388, 387, 386, 389, 390, 391, 393, 392, 394
 16, 179, 243, 214,  49, 113,  84, 397, 396, 395, 398, 399, 400, 402, 401, 403
 17, 180, 244, 213,  50, 114,  83, 406, 405, 404, 407, 408, 409, 411, 410, 412
 18, 212, 180, 146,  82,  50,  16, 415, 414, 413, 416, 417, 418, 419, 411, 420
 19, 212, 181, 245,  82,  51, 115, 423, 422, 421, 424, 425, 426, 419, 427, 428
 20, 145, 211, 181,  15,  81,  51, 431, 430, 429, 432, 433, 434, 436, 435, 427
** ... 108 like lines cut
*Nset, nset=Set-1, generate
   1,  904,    1
*Elset, elset=Set-1, generate
   1,  128,    1
** Section: Section-1
*Solid Section, elset=Set-1, material=Material-1
,
*End Part
**  
**
** ASSEMBLY
**
*Assembly, name=Assembly
**  
*Instance, name=Part-1-1, part=Part-1
*End Instance
**  
*Nset, nset=Set-1, instance=Part-1-1
  32,  33,  34,  66, 162, 163, 164, 196, 262, 265, 267, 269, 576, 774, 777, 778
*Elset, elset=Set-1, instance=Part-1-1
  1, 65
*End Assembly
** 
** MATERIALS
** 
*Material, name=Material-1
*Density
 0.00232,
*Elastic
160000., 0.22
** 
** BOUNDARY CONDITIONS
** 
** Name: BC-1 Type: Displacement/Rotation
*Boundary
Set-1, 1, 1
Set-1, 2, 2
Set-1, 3, 3
Set-1, 4, 4
Set-1, 5, 5
Set-1, 6, 6
